<routes><vType id="rl" color="1,0,0" speedFactor="1" accel="2.6" decel="4.5" tau="1.0" minGap="2.0" length="5" carFollowModel="IDM" /><vType id="vType_human_21.gas.22_AA_D_0_0" color="1,1,0" speedFactor="1" carFollowModel="IDM" length="5" guiShape="passenger" lcStrategic="1.0" lcLookaheadLeft="2.0" minGap="2.1396126827590844" tau="0.3300355931716511" accel="0.7395365806663706" decel="1.6733664290321593" /><vType id="vType_human_21.gas.11_AA_D_1_1" color="1,1,0" speedFactor="1" carFollowModel="IDM" length="5" guiShape="passenger" lcStrategic="1.0" lcLookaheadLeft="2.0" minGap="2.4502923859236985" tau="0.2146559447211723" accel="0.7428015646974632" decel="1.5038195623613535" /><vType id="vType_human_21.gas.3_AB_D_0_1" color="1,1,0" speedFactor="1" carFollowModel="IDM" length="5" guiShape="passenger" lcStrategic="1.0" lcLookaheadLeft="2.0" minGap="2.4196165007129258" tau="0.2138723983366367" accel="0.7471309985128388" decel="1.538410827457754" /><vType id="vType_human_31.gas.3_AB_D_0_2" color="1,1,0" speedFactor="1" carFollowModel="IDM" length="6" guiShape="passenger" lcStrategic="1.0" lcLookaheadLeft="2.0" minGap="2.3146556941382848" tau="0.2716730884502257" accel="0.7478471276550414" decel="1.6254113435389514" /><vType id="vType_human_21.gas.14_AB_D_0_4" color="1,1,0" speedFactor="1" carFollowModel="IDM" length="5" guiShape="passenger" lcStrategic="1.0" lcLookaheadLeft="2.0" minGap="2.431788867950854" tau="0.2602122787058008" accel="0.7456801899275419" decel="1.6980984357075777" /><vType id="vType_human_42.diesel.8_AB_D_0_5" color="1,1,0" speedFactor="1" carFollowModel="IDM" length="12" guiShape="bus" lcStrategic="1.0" lcLookaheadLeft="2.0" minGap="1.082652671183259" tau="0.6457112157878587" accel="0.7347925249537045" decel="1.407755648129242" /><vType id="vType_human_32.gas.15_AB_D_0_7" color="1,1,0" speedFactor="1" carFollowModel="IDM" length="7.1" guiShape="truck" lcStrategic="1.0" lcLookaheadLeft="2.0" minGap="1.458803616740169" tau="0.5513609759638567" accel="0.742870861893955" decel="1.57711442930503" /><vType id="vType_human_31.gas.12_AB_D_0_8" color="1,1,0" speedFactor="1" carFollowModel="IDM" length="6" guiShape="passenger" lcStrategic="1.0" lcLookaheadLeft="2.0" minGap="2.2943676373462845" tau="0.3071249800294356" accel="0.7441259611226292" decel="1.697163745082342" /><vType id="vType_human_31.gas.28_AB_D_0_9" color="1,1,0" speedFactor="1" carFollowModel="IDM" length="6" guiShape="passenger" lcStrategic="1.0" lcLookaheadLeft="2.0" minGap="2.27157699399664" tau="0.2691280415090463" accel="0.7471996849573052" decel="1.6442039486460784" /><vType id="vType_human_21.gas.15_AB_D_0_10" color="1,1,0" speedFactor="1" carFollowModel="IDM" length="5" guiShape="passenger" lcStrategic="1.0" lcLookaheadLeft="2.0" minGap="2.2833931856364447" tau="0.301196009702519" accel="0.7412853901994254" decel="1.834006573975837" /><vType id="vType_human_31.gas.10_AB_D_0_11" color="1,1,0" speedFactor="1" carFollowModel="IDM" length="6" guiShape="passenger" lcStrategic="1.0" lcLookaheadLeft="2.0" minGap="2.109870707676365" tau="0.3497039759912439" accel="0.7470700631635594" decel="1.6639248806040727" /><vType id="vType_human_32.gas.7_AB_D_0_13" color="1,1,0" speedFactor="1" carFollowModel="IDM" length="7.1" guiShape="truck" lcStrategic="1.0" lcLookaheadLeft="2.0" minGap="1.1199471198757056" tau="0.5985341934223853" accel="0.7478190962570073" decel="1.421848012946466" /><vType id="vType_human_21.gas.11_AB_D_1_0" color="1,1,0" speedFactor="1" carFollowModel="IDM" length="5" guiShape="passenger" lcStrategic="1.0" lcLookaheadLeft="2.0" minGap="1.9702752997534323" tau="0.3382335006502632" accel="0.7605056471373415" decel="1.7992895823642492" /><vType id="vType_human_31.gas.10_AB_D_1_6" color="1,1,0" speedFactor="1" carFollowModel="IDM" length="6" guiShape="passenger" lcStrategic="1.0" lcLookaheadLeft="2.0" minGap="2.1070361517460885" tau="0.3740112433183716" accel="0.7401458376019764" decel="1.7407232609222494" /><vType id="vType_human_21.gas.5_AB_D_1_7" color="1,1,0" speedFactor="1" carFollowModel="IDM" length="5" guiShape="passenger" lcStrategic="1.0" lcLookaheadLeft="2.0" minGap="2.2460305823833684" tau="0.3111195141981924" accel="0.7447109805217161" decel="1.6715186250005896" /><vType id="vType_human_31.gas.15_AB_D_1_9" color="1,1,0" speedFactor="1" carFollowModel="IDM" length="6" guiShape="passenger" lcStrategic="1.0" lcLookaheadLeft="2.0" minGap="2.0463421311803978" tau="0.3356027916598778" accel="0.7524577947247078" decel="1.6967569411981902" /><vType id="vType_human_32.gas.15_AB_D_1_11" color="1,1,0" speedFactor="1" carFollowModel="IDM" length="7.1" guiShape="truck" lcStrategic="1.0" lcLookaheadLeft="2.0" minGap="2.652345037686916" tau="0.3259787875837118" accel="0.7450151896511927" decel="1.562920460569543" /><vType id="vType_human_31.gas.9_AA_C_0_1" color="1,1,0" speedFactor="1" carFollowModel="IDM" length="6" guiShape="passenger" lcStrategic="1.0" lcLookaheadLeft="2.0" minGap="2.348185815276822" tau="0.2284487387099132" accel="0.7326686539032501" decel="1.5661467084314395" /><vType id="vType_human_21.gas.11_AA_C_0_2" color="1,1,0" speedFactor="1" carFollowModel="IDM" length="5" guiShape="passenger" lcStrategic="1.0" lcLookaheadLeft="2.0" minGap="2.253014311060945" tau="0.3329403475052848" accel="0.7471093441810053" decel="1.6777486106712085" /><vType id="vType_human_31.gas.2_AA_C_0_3" color="1,1,0" speedFactor="1" carFollowModel="IDM" length="6" guiShape="passenger" lcStrategic="1.0" lcLookaheadLeft="2.0" minGap="1.9756066828565628" tau="0.3302450866837073" accel="0.7447039487948336" decel="1.6890860036402335" /><vType id="vType_human_32.gas.0_AA_C_0_4" color="1,1,0" speedFactor="1" carFollowModel="IDM" length="7.1" guiShape="truck" lcStrategic="1.0" lcLookaheadLeft="2.0" minGap="1.08076366998721" tau="0.6248218242508224" accel="0.7356752552312964" decel="1.6176333945764458" /><vType id="vType_human_21.gas.0_AA_C_0_5" color="1,1,0" speedFactor="1" carFollowModel="IDM" length="5" guiShape="passenger" lcStrategic="1.0" lcLookaheadLeft="2.0" minGap="2.3213557965430933" tau="0.281046362125176" accel="0.73676254145142" decel="1.829514425131955" /><vType id="vType_human_31.gas.13_AA_C_0_6" color="1,1,0" speedFactor="1" carFollowModel="IDM" length="6" guiShape="passenger" lcStrategic="1.0" lcLookaheadLeft="2.0" minGap="2.417417166487444" tau="0.2545641668250495" accel="0.7526935782567024" decel="1.651052528101387" /><vType id="vType_human_31.gas.16_AA_C_0_7" color="1,1,0" speedFactor="1" carFollowModel="IDM" length="6" guiShape="passenger" lcStrategic="1.0" lcLookaheadLeft="2.0" minGap="2.2373453119852567" tau="0.3089390505617091" accel="0.7479366277267748" decel="1.7388106839182096" /><vType id="vType_human_31.gas.9_AA_C_0_8" color="1,1,0" speedFactor="1" carFollowModel="IDM" length="6" guiShape="passenger" lcStrategic="1.0" lcLookaheadLeft="2.0" minGap="1.8954445713376424" tau="0.3885171373956284" accel="0.75038089919783" decel="1.8006998760465711" /><vType id="vType_human_21.gas.15_AA_C_0_9" color="1,1,0" speedFactor="1" carFollowModel="IDM" length="5" guiShape="passenger" lcStrategic="1.0" lcLookaheadLeft="2.0" minGap="2.228603413267037" tau="0.2932222715944673" accel="0.7496833426595895" decel="1.712673103872452" /><vType id="vType_human_21.gas.30_AA_C_0_10" color="1,1,0" speedFactor="1" carFollowModel="IDM" length="5" guiShape="passenger" lcStrategic="1.0" lcLookaheadLeft="2.0" minGap="2.249974158280705" tau="0.3075990363668685" accel="0.7435639807708788" decel="1.7853587625105" /><vType id="vType_human_31.gas.22_AA_C_1_1" color="1,1,0" speedFactor="1" carFollowModel="IDM" length="6" guiShape="passenger" lcStrategic="1.0" lcLookaheadLeft="2.0" minGap="1.9060941035123695" tau="0.2896129378341465" accel="0.7473616795508486" decel="1.616241546058398" /><vType id="vType_human_31.gas.9_AA_C_1_4" color="1,1,0" speedFactor="1" carFollowModel="IDM" length="6" guiShape="passenger" lcStrategic="1.0" lcLookaheadLeft="2.0" minGap="2.424262202326985" tau="0.2712114683208323" accel="0.7464294331258626" decel="1.663859406623838" /><vType id="vType_human_21.gas.4_AA_C_1_5" color="1,1,0" speedFactor="1" carFollowModel="IDM" length="5" guiShape="passenger" lcStrategic="1.0" lcLookaheadLeft="2.0" minGap="2.1713012143093344" tau="0.3151729846299193" accel="0.7416592211930223" decel="1.682872819432326" /><vType id="vType_human_31.gas.20_AA_C_1_6" color="1,1,0" speedFactor="1" carFollowModel="IDM" length="6" guiShape="passenger" lcStrategic="1.0" lcLookaheadLeft="2.0" minGap="2.065276724140221" tau="0.367569391139443" accel="0.7475745337360411" decel="1.6517845905441546" /><vType id="vType_human_21.gas.5_AA_C_1_7" color="1,1,0" speedFactor="1" carFollowModel="IDM" length="5" guiShape="passenger" lcStrategic="1.0" lcLookaheadLeft="2.0" minGap="2.2788183253707177" tau="0.2980597364270053" accel="0.7247735072598342" decel="1.7721227373237467" /><vType id="vType_human_31.diesel.16_AA_C_1_8" color="1,1,0" speedFactor="1" carFollowModel="IDM" length="6" guiShape="passenger" lcStrategic="1.0" lcLookaheadLeft="2.0" minGap="2.386775379394119" tau="0.2556101380983605" accel="0.7443348130775159" decel="1.625709567193528" /><vType id="vType_human_31.gas.13_AA_C_1_9" color="1,1,0" speedFactor="1" carFollowModel="IDM" length="6" guiShape="passenger" lcStrategic="1.0" lcLookaheadLeft="2.0" minGap="2.333683385800515" tau="0.2436088642053626" accel="0.7448741166789586" decel="1.6182328254235063" /><vType id="vType_human_31.gas.13_AA_C_1_10" color="1,1,0" speedFactor="1" carFollowModel="IDM" length="6" guiShape="passenger" lcStrategic="1.0" lcLookaheadLeft="2.0" minGap="2.3146556941382848" tau="0.2716730884502257" accel="0.7478471276550414" decel="1.6254113435389514" /><vType id="vType_human_31.gas.4_AB_C_0_1" color="1,1,0" speedFactor="1" carFollowModel="IDM" length="6" guiShape="passenger" lcStrategic="1.0" lcLookaheadLeft="2.0" minGap="2.057149830933423" tau="0.2929407230416296" accel="0.7430043658390373" decel="1.6063432771386363" /><vType id="vType_human_31.gas.15_AB_C_0_2" color="1,1,0" speedFactor="1" carFollowModel="IDM" length="6" guiShape="passenger" lcStrategic="1.0" lcLookaheadLeft="2.0" minGap="2.068796181616091" tau="0.284466430634779" accel="0.7349605328745564" decel="1.4978278804711909" /><vType id="vType_human_32.gas.9_AB_C_0_3" color="1,1,0" speedFactor="1" carFollowModel="IDM" length="7.1" guiShape="truck" lcStrategic="1.0" lcLookaheadLeft="2.0" minGap="0.6794328826928061" tau="0.3961188749044724" accel="0.7577994855150197" decel="1.3375305552712853" /><vType id="vType_human_31.gas.1_AB_C_0_4" color="1,1,0" speedFactor="1" carFollowModel="IDM" length="6" guiShape="passenger" lcStrategic="1.0" lcLookaheadLeft="2.0" minGap="2.055454811754302" tau="0.304291249343802" accel="0.7440280396700275" decel="1.6635913588877889" /><vType id="vType_human_21.gas.5_AB_C_0_5" color="1,1,0" speedFactor="1" carFollowModel="IDM" length="5" guiShape="passenger" lcStrategic="1.0" lcLookaheadLeft="2.0" minGap="2.04088988853867" tau="0.3097204767978139" accel="0.7485546830297242" decel="1.718348866592882" /><vType id="vType_human_21.gas.10_AB_C_0_8" color="1,1,0" speedFactor="1" carFollowModel="IDM" length="5" guiShape="passenger" lcStrategic="1.0" lcLookaheadLeft="2.0" minGap="2.3976158474526645" tau="0.2421603140967611" accel="0.7405795580307458" decel="1.742968148563028" /><vType id="vType_human_31.gas.3_AB_C_0_9" color="1,1,0" speedFactor="1" carFollowModel="IDM" length="6" guiShape="passenger" lcStrategic="1.0" lcLookaheadLeft="2.0" minGap="2.1958788817219244" tau="0.2461494387445003" accel="0.7326485345677504" decel="1.5756586872063667" /><vType id="vType_human_31.diesel.7_AB_C_0_10" color="1,1,0" speedFactor="1" carFollowModel="IDM" length="6" guiShape="passenger" lcStrategic="1.0" lcLookaheadLeft="2.0" minGap="2.112294605367347" tau="0.3079529724404377" accel="0.7462853067343663" decel="1.5722184063569766" /><vType id="vType_human_32.diesel.5_AB_C_0_12" color="1,1,0" speedFactor="1" carFollowModel="IDM" length="7.1" guiShape="truck" lcStrategic="1.0" lcLookaheadLeft="2.0" minGap="1.5166382822232334" tau="0.5927387519905744" accel="0.7494271775251998" decel="2.094889913066456" /><vType id="vType_human_21.gas.2_AB_C_0_13" color="1,1,0" speedFactor="1" carFollowModel="IDM" length="5" guiShape="passenger" lcStrategic="1.0" lcLookaheadLeft="2.0" minGap="2.257812071213166" tau="0.2503041707904124" accel="0.7470546419714106" decel="1.5083472607831654" /><vType id="vType_human_21.gas.3_AB_C_0_14" color="1,1,0" speedFactor="1" carFollowModel="IDM" length="5" guiShape="passenger" lcStrategic="1.0" lcLookaheadLeft="2.0" minGap="1.9270020988301395" tau="0.2982201829969357" accel="0.7534953374187722" decel="1.607310296000617" /><vType id="vType_human_31.gas.2_AB_C_0_15" color="1,1,0" speedFactor="1" carFollowModel="IDM" length="6" guiShape="passenger" lcStrategic="1.0" lcLookaheadLeft="2.0" minGap="2.316285921694421" tau="0.270066776668573" accel="0.746068168701219" decel="1.681342335344328" /><vType id="vType_human_31.gas.13_AB_C_0_17" color="1,1,0" speedFactor="1" carFollowModel="IDM" length="6" guiShape="passenger" lcStrategic="1.0" lcLookaheadLeft="2.0" minGap="2.4800115447744364" tau="0.2242200555424253" accel="0.7328223244021345" decel="1.6020109491064491" /><vType id="vType_human_31.gas.13_AB_C_0_18" color="1,1,0" speedFactor="1" carFollowModel="IDM" length="6" guiShape="passenger" lcStrategic="1.0" lcLookaheadLeft="2.0" minGap="2.251141259319205" tau="0.3045885096683923" accel="0.7438250785882796" decel="1.8016128184169065" /><vType id="vType_human_21.gas.10_AB_C_0_19" color="1,1,0" speedFactor="1" carFollowModel="IDM" length="5" guiShape="passenger" lcStrategic="1.0" lcLookaheadLeft="2.0" minGap="2.2512936877261387" tau="0.2896027873426517" accel="0.7479352815330498" decel="1.7104198928029108" /><vType id="vType_human_31.gas.4_AB_C_0_20" color="1,1,0" speedFactor="1" carFollowModel="IDM" length="6" guiShape="passenger" lcStrategic="1.0" lcLookaheadLeft="2.0" minGap="2.358634818631709" tau="0.313742666568273" accel="0.7430395749649971" decel="1.7178655965617724" /><vType id="vType_human_21.gas.1_AB_C_0_21" color="1,1,0" speedFactor="1" carFollowModel="IDM" length="5" guiShape="passenger" lcStrategic="1.0" lcLookaheadLeft="2.0" minGap="2.1781219378849066" tau="0.2897843396289716" accel="0.756891338441896" decel="1.6167591329706574" /><vType id="vType_human_31.gas.18_AB_C_0_22" color="1,1,0" speedFactor="1" carFollowModel="IDM" length="6" guiShape="passenger" lcStrategic="1.0" lcLookaheadLeft="2.0" minGap="2.010060722002927" tau="0.295652346795103" accel="0.7475514124679309" decel="1.6243285107290035" /><vType id="vType_human_31.gas.15_AB_C_0_23" color="1,1,0" speedFactor="1" carFollowModel="IDM" length="6" guiShape="passenger" lcStrategic="1.0" lcLookaheadLeft="2.0" minGap="2.2075540717988384" tau="0.2322534742315845" accel="0.743483713523328" decel="1.5688320566563527" /><vType id="vType_human_21.gas.5_AB_C_0_25" color="1,1,0" speedFactor="1" carFollowModel="IDM" length="5" guiShape="passenger" lcStrategic="1.0" lcLookaheadLeft="2.0" minGap="2.304566052964458" tau="0.2930188893173427" accel="0.7394200247957754" decel="1.5996264515731902" /><vType id="vType_human_31.gas.4_AB_C_0_26" color="1,1,0" speedFactor="1" carFollowModel="IDM" length="6" guiShape="passenger" lcStrategic="1.0" lcLookaheadLeft="2.0" minGap="2.356457848334617" tau="0.2201552462289977" accel="0.753730651128175" decel="1.5732978221713678" /><vType id="vType_human_21.gas.5_AB_C_0_27" color="1,1,0" speedFactor="1" carFollowModel="IDM" length="5" guiShape="passenger" lcStrategic="1.0" lcLookaheadLeft="2.0" minGap="2.2356670846979987" tau="0.2812126523598184" accel="0.7519904996355552" decel="1.5834731579644283" /><vType id="vType_human_31.gas.6_AB_C_0_28" color="1,1,0" speedFactor="1" carFollowModel="IDM" length="6" guiShape="passenger" lcStrategic="1.0" lcLookaheadLeft="2.0" minGap="2.2856691704787293" tau="0.2822775718863854" accel="0.7432746421951205" decel="1.5431025845763693" /><vType id="vType_human_21.gas.8_AB_C_0_29" color="1,1,0" speedFactor="1" carFollowModel="IDM" length="5" guiShape="passenger" lcStrategic="1.0" lcLookaheadLeft="2.0" minGap="2.3525938987639075" tau="0.2895661653206775" accel="0.7495985175413049" decel="1.632723370726412" /><vType id="vType_human_21.gas.4_AB_C_0_32" color="1,1,0" speedFactor="1" carFollowModel="IDM" length="5" guiShape="passenger" lcStrategic="1.0" lcLookaheadLeft="2.0" minGap="1.9105943881934109" tau="0.3024717206404302" accel="0.7454876610618125" decel="1.593585477071337" /><vType id="vType_human_21.gas.10_AB_C_0_35" color="1,1,0" speedFactor="1" carFollowModel="IDM" length="5" guiShape="passenger" lcStrategic="1.0" lcLookaheadLeft="2.0" minGap="1.9886121471379183" tau="0.3386116146474743" accel="0.7369796056560838" decel="1.6541738829243935" /><vType id="vType_human_21.gas.30_AB_C_0_38" color="1,1,0" speedFactor="1" carFollowModel="IDM" length="5" guiShape="passenger" lcStrategic="1.0" lcLookaheadLeft="2.0" minGap="2.792236875570789" tau="0.2348346573840219" accel="0.7525474073502725" decel="1.6700868465765673" /><vType id="vType_human_31.gas.0_AB_C_0_39" color="1,1,0" speedFactor="1" carFollowModel="IDM" length="6" guiShape="passenger" lcStrategic="1.0" lcLookaheadLeft="2.0" minGap="2.16403317909702" tau="0.3203771527795402" accel="0.7436677849823442" decel="1.81596828147068" /><vType id="vType_human_21.gas.4_AB_C_0_40" color="1,1,0" speedFactor="1" carFollowModel="IDM" length="5" guiShape="passenger" lcStrategic="1.0" lcLookaheadLeft="2.0" minGap="2.263563193908" tau="0.2738090863084152" accel="0.7382107974056435" decel="1.6466322331274632" /><vType id="vType_human_31.gas.2_AB_C_0_41" color="1,1,0" speedFactor="1" carFollowModel="IDM" length="6" guiShape="passenger" lcStrategic="1.0" lcLookaheadLeft="2.0" minGap="1.9043538009929613" tau="0.3842401454461429" accel="0.7473193017379466" decel="1.760346361932283" /><vType id="vType_human_31.gas.1_AB_C_0_42" color="1,1,0" speedFactor="1" carFollowModel="IDM" length="6" guiShape="passenger" lcStrategic="1.0" lcLookaheadLeft="2.0" minGap="2.472609025209072" tau="0.266958183109556" accel="0.7381290901455453" decel="1.648363187047039" /><vType id="vType_human_21.gas.6_AB_C_0_43" color="1,1,0" speedFactor="1" carFollowModel="IDM" length="5" guiShape="passenger" lcStrategic="1.0" lcLookaheadLeft="2.0" minGap="2.3778622637106603" tau="0.2764252938540318" accel="0.728064595473883" decel="1.626672515566878" /><vType id="vType_human_31.gas.21_AB_C_0_45" color="1,1,0" speedFactor="1" carFollowModel="IDM" length="6" guiShape="passenger" lcStrategic="1.0" lcLookaheadLeft="2.0" minGap="2.454550137658507" tau="0.2548730951531306" accel="0.7438573103868125" decel="1.6963642139396309" /><vType id="vType_human_31.gas.2_AB_C_0_46" color="1,1,0" speedFactor="1" carFollowModel="IDM" length="6" guiShape="passenger" lcStrategic="1.0" lcLookaheadLeft="2.0" minGap="2.2534073618454085" tau="0.303577930446989" accel="0.7421484211347651" decel="1.6909291585769262" /><vType id="vType_human_21.gas.0_AB_C_0_48" color="1,1,0" speedFactor="1" carFollowModel="IDM" length="5" guiShape="passenger" lcStrategic="1.0" lcLookaheadLeft="2.0" minGap="2.287446367890045" tau="0.2692915843907593" accel="0.7450879449536003" decel="1.5702139031298583" /><vType id="vType_human_21.gas.2_AB_C_0_49" color="1,1,0" speedFactor="1" carFollowModel="IDM" length="5" guiShape="passenger" lcStrategic="1.0" lcLookaheadLeft="2.0" minGap="2.0460390377718976" tau="0.2947899440935456" accel="0.7399787444360013" decel="1.596405072172143" /><vType id="vType_human_31.gas.7_AB_C_0_50" color="1,1,0" speedFactor="1" carFollowModel="IDM" length="6" guiShape="passenger" lcStrategic="1.0" lcLookaheadLeft="2.0" minGap="2.3628043843562563" tau="0.3491536796183778" accel="0.7453838798273099" decel="1.7318960684128608" /><vType id="vType_human_31.gas.10_AB_C_0_51" color="1,1,0" speedFactor="1" carFollowModel="IDM" length="6" guiShape="passenger" lcStrategic="1.0" lcLookaheadLeft="2.0" minGap="2.173287759670979" tau="0.2852907371483721" accel="0.7554026560893478" decel="1.7085520338567817" /><vType id="vType_human_21.gas.17_AB_C_0_52" color="1,1,0" speedFactor="1" carFollowModel="IDM" length="5" guiShape="passenger" lcStrategic="1.0" lcLookaheadLeft="2.0" minGap="1.9163470378357008" tau="0.3393569923521855" accel="0.743065559806904" decel="1.650069032428583" /><vType id="vType_human_32.gas.11_AB_C_0_57" color="1,1,0" speedFactor="1" carFollowModel="IDM" length="7.1" guiShape="truck" lcStrategic="1.0" lcLookaheadLeft="2.0" minGap="1.4888678458954807" tau="0.4136823472561497" accel="0.7402166947545247" decel="1.308369692380155" /><vType id="vType_human_31.gas.18_AB_C_0_58" color="1,1,0" speedFactor="1" carFollowModel="IDM" length="6" guiShape="passenger" lcStrategic="1.0" lcLookaheadLeft="2.0" minGap="2.1408011679771914" tau="0.3166810752318688" accel="0.7492371677723451" decel="1.5664002036466511" /><vType id="vType_human_31.gas.5_AB_C_0_59" color="1,1,0" speedFactor="1" carFollowModel="IDM" length="6" guiShape="passenger" lcStrategic="1.0" lcLookaheadLeft="2.0" minGap="2.242261552382212" tau="0.289931814767118" accel="0.749448263704468" decel="1.677413187253672" /><vType id="vType_human_31.diesel.14_AB_C_0_60" color="1,1,0" speedFactor="1" carFollowModel="IDM" length="6" guiShape="passenger" lcStrategic="1.0" lcLookaheadLeft="2.0" minGap="2.503765644206812" tau="0.2001252183189036" accel="0.7426614161020978" decel="1.6285683903659025" /><vType id="vType_human_32.gas.4_AB_C_0_61" color="1,1,0" speedFactor="1" carFollowModel="IDM" length="7.1" guiShape="truck" lcStrategic="1.0" lcLookaheadLeft="2.0" minGap="1.499806663539888" tau="0.5311166307403485" accel="0.7471439867026984" decel="1.3987581941936935" /><vType id="vType_human_21.gas.30_AB_C_0_62" color="1,1,0" speedFactor="1" carFollowModel="IDM" length="5" guiShape="passenger" lcStrategic="1.0" lcLookaheadLeft="2.0" minGap="2.119312577410282" tau="0.3133271823696943" accel="0.7424717345938816" decel="1.7430572172447831" /><vType id="vType_human_21.gas.2_AB_C_0_63" color="1,1,0" speedFactor="1" carFollowModel="IDM" length="5" guiShape="passenger" lcStrategic="1.0" lcLookaheadLeft="2.0" minGap="2.2492100637452093" tau="0.2809953403390645" accel="0.7394273767106865" decel="1.5857428324610854" /><vType id="vType_human_31.gas.15_AB_C_0_64" color="1,1,0" speedFactor="1" carFollowModel="IDM" length="6" guiShape="passenger" lcStrategic="1.0" lcLookaheadLeft="2.0" minGap="2.509906683822517" tau="0.2926230673050831" accel="0.7361774068778266" decel="1.713786714253187" /><vType id="vType_human_31.gas.0_AB_C_0_65" color="1,1,0" speedFactor="1" carFollowModel="IDM" length="6" guiShape="passenger" lcStrategic="1.0" lcLookaheadLeft="2.0" minGap="2.214213197094271" tau="0.3064236385273941" accel="0.7505986401857698" decel="1.677096580566318" /><vType id="vType_human_21.gas.14_AB_C_0_66" color="1,1,0" speedFactor="1" carFollowModel="IDM" length="5" guiShape="passenger" lcStrategic="1.0" lcLookaheadLeft="2.0" minGap="1.99158997273005" tau="0.3384675304016823" accel="0.7366567812104826" decel="1.6656979668936052" /><vType id="vType_human_32.gas.4_AB_C_0_69" color="1,1,0" speedFactor="1" carFollowModel="IDM" length="7.1" guiShape="truck" lcStrategic="1.0" lcLookaheadLeft="2.0" minGap="0.8241623062854906" tau="0.841202671237104" accel="0.7467750247259463" decel="1.952288830757268" /><vType id="vType_human_21.gas.17_AB_C_0_70" color="1,1,0" speedFactor="1" carFollowModel="IDM" length="5" guiShape="passenger" lcStrategic="1.0" lcLookaheadLeft="2.0" minGap="2.1062617876614693" tau="0.2895918857078631" accel="0.7514296145357663" decel="1.7169236312308138" /><vType id="vType_human_32.gas.4_AB_C_0_72" color="1,1,0" speedFactor="1" carFollowModel="IDM" length="7.1" guiShape="truck" lcStrategic="1.0" lcLookaheadLeft="2.0" minGap="0.9366353065831052" tau="0.6692357669316901" accel="0.7394860316372425" decel="1.4904588102708185" /><vType id="vType_human_21.gas.17_AB_C_0_74" color="1,1,0" speedFactor="1" carFollowModel="IDM" length="5" guiShape="passenger" lcStrategic="1.0" lcLookaheadLeft="2.0" minGap="2.1041228606021494" tau="0.3177467693935944" accel="0.7367602143311951" decel="1.662389217127498" /><vType id="vType_human_31.gas.27_AB_C_0_75" color="1,1,0" speedFactor="1" carFollowModel="IDM" length="6" guiShape="passenger" lcStrategic="1.0" lcLookaheadLeft="2.0" minGap="2.3341344759456124" tau="0.2782783508212836" accel="0.7505618219264952" decel="1.628800300803308" /><vType id="vType_human_32.diesel.11_AB_C_0_76" color="1,1,0" speedFactor="1" carFollowModel="IDM" length="7.1" guiShape="truck" lcStrategic="1.0" lcLookaheadLeft="2.0" minGap="1.2014733432550475" tau="0.784132651575656" accel="0.7439163863501357" decel="1.4740940096423665" /><vType id="vType_human_31.gas.11_AB_C_0_77" color="1,1,0" speedFactor="1" carFollowModel="IDM" length="6" guiShape="passenger" lcStrategic="1.0" lcLookaheadLeft="2.0" minGap="2.535709307349046" tau="0.2392343750078006" accel="0.7503602378979735" decel="1.6500025849953628" /><vType id="vType_human_21.gas.30_AB_C_0_78" color="1,1,0" speedFactor="1" carFollowModel="IDM" length="5" guiShape="passenger" lcStrategic="1.0" lcLookaheadLeft="2.0" minGap="2.264873390237739" tau="0.2465381359013481" accel="0.7524806527280175" decel="1.5881916016930029" /><vType id="vType_human_31.gas.17_AB_C_0_80" color="1,1,0" speedFactor="1" carFollowModel="IDM" length="6" guiShape="passenger" lcStrategic="1.0" lcLookaheadLeft="2.0" minGap="2.0929495561557627" tau="0.3434883869559741" accel="0.7466309999768754" decel="1.6465941942596292" /><vType id="vType_human_31.gas.0_AB_C_0_82" color="1,1,0" speedFactor="1" carFollowModel="IDM" length="6" guiShape="passenger" lcStrategic="1.0" lcLookaheadLeft="2.0" minGap="2.2404317438330748" tau="0.287758060783683" accel="0.7551459126929121" decel="1.7304612411547522" /><vType id="vType_human_21.gas.30_AB_C_0_83" color="1,1,0" speedFactor="1" carFollowModel="IDM" length="5" guiShape="passenger" lcStrategic="1.0" lcLookaheadLeft="2.0" minGap="2.121811500715179" tau="0.3369697032454252" accel="0.7481018010170076" decel="1.6852350831342944" /><vType id="vType_human_21.gas.14_AB_C_0_84" color="1,1,0" speedFactor="1" carFollowModel="IDM" length="5" guiShape="passenger" lcStrategic="1.0" lcLookaheadLeft="2.0" minGap="2.5247102379000874" tau="0.241042375266754" accel="0.75276124681793" decel="1.5762019516346844" /><vType id="vType_human_21.gas.11_AB_C_0_87" color="1,1,0" speedFactor="1" carFollowModel="IDM" length="5" guiShape="passenger" lcStrategic="1.0" lcLookaheadLeft="2.0" minGap="2.305373245573694" tau="0.2833266108658106" accel="0.750338504725916" decel="1.7337357045763375" /><vType id="vType_human_21.gas.1_AB_C_0_89" color="1,1,0" speedFactor="1" carFollowModel="IDM" length="5" guiShape="passenger" lcStrategic="1.0" lcLookaheadLeft="2.0" minGap="1.979744413125068" tau="0.4282204153781473" accel="0.7393602316147417" decel="1.846486970313828" /><vType id="vType_human_31.gas.2_AB_C_0_90" color="1,1,0" speedFactor="1" carFollowModel="IDM" length="6" guiShape="passenger" lcStrategic="1.0" lcLookaheadLeft="2.0" minGap="2.094647312447392" tau="0.2818279966884407" accel="0.7246959882299702" decel="1.8034165849599169" /><vType id="vType_human_31.diesel.4_AB_C_0_91" color="1,1,0" speedFactor="1" carFollowModel="IDM" length="6" guiShape="passenger" lcStrategic="1.0" lcLookaheadLeft="2.0" minGap="2.253700422654901" tau="0.2961710279487977" accel="0.7429527666123726" decel="1.7602159676727422" /><vType id="vType_human_21.gas.15_AB_C_0_92" color="1,1,0" speedFactor="1" carFollowModel="IDM" length="5" guiShape="passenger" lcStrategic="1.0" lcLookaheadLeft="2.0" minGap="2.3310773802447105" tau="0.2428491429547383" accel="0.7515928097265041" decel="1.551407229828209" /><vType id="vType_human_31.gas.5_AB_C_0_94" color="1,1,0" speedFactor="1" carFollowModel="IDM" length="6" guiShape="passenger" lcStrategic="1.0" lcLookaheadLeft="2.0" minGap="2.254771215715456" tau="0.3111038845793407" accel="0.7358148704486808" decel="1.5984772373639748" /><vType id="vType_human_21.gas.8_AB_C_0_96" color="1,1,0" speedFactor="1" carFollowModel="IDM" length="5" guiShape="passenger" lcStrategic="1.0" lcLookaheadLeft="2.0" minGap="2.6352319156979163" tau="0.2468855458525982" accel="0.7392427802281052" decel="1.6488807193158304" /><vType id="vType_human_21.gas.16_AB_C_0_99" color="1,1,0" speedFactor="1" carFollowModel="IDM" length="5" guiShape="passenger" lcStrategic="1.0" lcLookaheadLeft="2.0" minGap="2.3413829367887296" tau="0.3007433649573847" accel="0.7377106911279679" decel="1.6814024515533732" /><vType id="vType_human_31.gas.13_AB_C_0_101" color="1,1,0" speedFactor="1" carFollowModel="IDM" length="6" guiShape="passenger" lcStrategic="1.0" lcLookaheadLeft="2.0" minGap="2.309135189374133" tau="0.2623422596886371" accel="0.7398766486921097" decel="1.5750989709210734" /><vType id="vType_human_31.gas.21_AB_C_1_1" color="1,1,0" speedFactor="1" carFollowModel="IDM" length="6" guiShape="passenger" lcStrategic="1.0" lcLookaheadLeft="2.0" minGap="2.2328454365929047" tau="0.2392265209624684" accel="0.7250038505668114" decel="1.629861929007817" /><vType id="vType_human_31.gas.1_AB_C_1_2" color="1,1,0" speedFactor="1" carFollowModel="IDM" length="6" guiShape="passenger" lcStrategic="1.0" lcLookaheadLeft="2.0" minGap="2.193183893495827" tau="0.2788494904220007" accel="0.7507902647113723" decel="1.5179530864363755" /><vType id="vType_human_21.gas.16_AB_C_1_4" color="1,1,0" speedFactor="1" carFollowModel="IDM" length="5" guiShape="passenger" lcStrategic="1.0" lcLookaheadLeft="2.0" minGap="2.4372666276459687" tau="0.2666803509997504" accel="0.7468510050848728" decel="1.615323275239213" /><vType id="vType_human_31.gas.25_AB_C_1_5" color="1,1,0" speedFactor="1" carFollowModel="IDM" length="6" guiShape="passenger" lcStrategic="1.0" lcLookaheadLeft="2.0" minGap="2.3269228771696238" tau="0.3204100205337134" accel="0.7394923386760485" decel="1.7501849097955209" /><vType id="vT